# generated using pymatgen
data_Sr6Li23
_symmetry_space_group_name_H-M   'P 1'
_cell_length_a   10.49750215
_cell_length_b   10.49750215
_cell_length_c   10.49750650
_cell_angle_alpha   59.99998175
_cell_angle_beta   59.99998175
_cell_angle_gamma   59.99996350
_symmetry_Int_Tables_number   1
_chemical_formula_structural   Sr6Li23
_chemical_formula_sum   'Sr6 Li23'
_cell_volume   817.98032813
_cell_formula_units_Z   1
loop_
 _symmetry_equiv_pos_site_id
 _symmetry_equiv_pos_as_xyz
  1  'x, y, z'
loop_
 _atom_type_symbol
 _atom_type_oxidation_number
  Sr0+  0.0
  Li0+  0.0
loop_
 _atom_site_type_symbol
 _atom_site_label
 _atom_site_symmetry_multiplicity
 _atom_site_fract_x
 _atom_site_fract_y
 _atom_site_fract_z
 _atom_site_occupancy
  Sr0+  Sr0  1  0.20601735  0.20601735  0.79398265  1.0
  Sr0+  Sr1  1  0.20601735  0.79398265  0.79398265  1.0
  Sr0+  Sr2  1  0.79398265  0.20601735  0.20601735  1.0
  Sr0+  Sr3  1  0.20601735  0.79398265  0.20601735  1.0
  Sr0+  Sr4  1  0.79398265  0.20601735  0.79398265  1.0
  Sr0+  Sr5  1  0.79398265  0.79398265  0.20601735  1.0
  Li0+  Li6  1  0.50000000  0.50000000  0.50000000  1.0
  Li0+  Li7  1  0.50000000  0.50000000  0.00000000  1.0
  Li0+  Li8  1  0.00000000  0.50000000  0.50000000  1.0
  Li0+  Li9  1  0.50000000  0.00000000  0.00000000  1.0
  Li0+  Li10  1  0.00000000  0.00000000  0.50000000  1.0
  Li0+  Li11  1  0.00000000  0.50000000  0.00000000  1.0
  Li0+  Li12  1  0.50000000  0.00000000  0.50000000  1.0
  Li0+  Li13  1  0.62169258  0.13492126  0.62169258  1.0
  Li0+  Li14  1  0.37830742  0.37830742  0.86507874  1.0
  Li0+  Li15  1  0.86507874  0.37830742  0.37830742  1.0
  Li0+  Li16  1  0.37830742  0.37830742  0.37830742  1.0
  Li0+  Li17  1  0.13492126  0.62169258  0.62169258  1.0
  Li0+  Li18  1  0.62169258  0.62169258  0.62169258  1.0
  Li0+  Li19  1  0.62169258  0.62169258  0.13492126  1.0
  Li0+  Li20  1  0.37830742  0.86507874  0.37830742  1.0
  Li0+  Li21  1  0.82224083  0.53327750  0.82224083  1.0
  Li0+  Li22  1  0.17775917  0.17775917  0.46672250  1.0
  Li0+  Li23  1  0.46672250  0.17775917  0.17775917  1.0
  Li0+  Li24  1  0.17775917  0.17775917  0.17775917  1.0
  Li0+  Li25  1  0.53327750  0.82224083  0.82224083  1.0
  Li0+  Li26  1  0.82224083  0.82224083  0.82224083  1.0
  Li0+  Li27  1  0.82224083  0.82224083  0.53327750  1.0
  Li0+  Li28  1  0.17775917  0.46672250  0.17775917  1.0
